distopf/cases/dss/ieee123_dss/ieee123_EXP_ElemPowers.CSV
Element, Nterminals, Nconductors, P_1, Q_1, ...
"Vsource.source", 2, 3,   -1464.42,   -581.692,   -963.752,   -343.696,   -1193.41,   -398.515,          0,          0,          0,          0,          0,          0
"Transformer.reg1a", 2, 4,    1464.42,    581.692,    963.752,    343.696,    1193.41,    398.515,          0,          0,   -1464.42,   -581.677,   -963.752,   -343.689,   -1193.41,   -398.506,          0,          0
"Line.l115", 2, 3,    1464.42,    581.677,    963.752,    343.689,    1193.41,    398.506,   -1453.24,   -558.631,   -963.321,   -337.677,   -1185.86,   -387.312
"Line.l1", 2, 1,    20.0035,    10.0026,        -20,        -10
"Line.l2", 2, 1,    103.498,    51.8683,   -103.361,   -51.7313
"Line.l3", 2, 3,    1413.24,    538.631,    943.318,    327.674,    1082.36,    335.444,   -1404.83,   -522.345,   -943.149,   -323.039,   -1077.85,   -328.903
"Line.l4", 2, 1,    40.0164,    20.0156,   -40.0001,        -20
"Line.l5", 2, 1,     63.345,    31.7157,   -63.2783,   -31.6498
"Line.l6", 2, 1,    42.6246,     21.323,   -42.6013,   -21.3007
"Line.l7", 2, 3,    1384.83,    512.345,    943.149,    323.039,    1077.85,    328.903,    -1379.4,   -501.871,   -942.965,   -319.942,   -1074.87,   -324.486
"Line.l8", 2, 1,    20.0046,    10.0034,        -20,        -10
"Line.l9", 2, 1,    100.898,    50.5633,   -100.777,   -50.4416
"Line.l10", 2, 3,     1278.5,    451.307,     922.96,    309.939,    1074.87,    324.486,    -1271.8,   -438.226,   -922.259,   -305.555,   -1070.53,    -317.42
"Line.l11", 2, 1,    60.7765,    30.4411,   -60.6922,   -30.3578
"Line.l12", 2, 1,    101.717,    50.9251,   -101.636,   -50.8433
"Line.l13", 2, 3,    486.863,    265.006,    320.596,    217.273,    324.327,    189.412,   -484.423,    -259.08,   -320.256,   -215.016,   -322.195,   -187.664
"Line.l14", 2, 1,    40.5487,    20.2845,   -40.5266,   -20.2633
"Line.l15", 2, 1,    20.1435,    10.0733,    -20.138,    -10.069
"Line.l16", 2, 1,    40.0318,    20.0302,   -40.0002,   -20.0001
"Line.l17", 2, 1,    20.0075,    10.0057,   -20.0001,        -10
"Line.l18", 2, 1,    80.0188,    40.0662,   -79.9313,   -39.9786
"Line.l19", 2, 3,    119.651,    60.3503,     42.597,    21.3064,    120.432,    60.3575,   -119.639,   -60.2101,   -42.5989,   -21.3099,   -120.316,   -60.2446
"Line.l20", 2, 1,    39.9305,    19.9782,   -39.9021,    -19.951
"Line.l21", 2, 1,    42.5982,    21.3214,   -42.5494,   -21.2747
"Line.l22", 2, 3,    119.639,    60.2101, 0.000719425, -0.0115176,    120.316,    60.2446,   -119.645,    -60.076, -0.000607892, 0.00969314,   -120.199,   -60.1476
"Line.l23", 2, 1,    40.0474,    20.0452,   -40.0002,   -20.0001
"Line.l24", 2, 3,    119.645,     60.076, 0.000607892, -0.00969314,    80.1518,    40.1024,   -119.624,   -59.9216, -0.000482914, 0.00768487,   -80.0822,   -40.0702
"Line.l25", 2, 2,       39.9,    20.0039,     40.042,    20.0369,   -39.8985,   -19.9828,   -40.0261,   -20.0223
"Line.l26", 2, 3,    79.7237,    39.9176, 0.000482914, -0.00768487,    40.0401,    20.0333,   -79.7124,   -39.8675, -0.000391141, 0.00622251,   -40.0254,   -20.0311
"Line.l27", 2, 2,    39.8985,    19.9828, -0.000270834, -0.00172515,     -39.89,    -19.965, -1.80333E-011, -3.99054E-011
"Line.l28", 2, 1,    40.0263,     20.024,   -40.0068,   -20.0052
"Line.l29", 2, 1,      39.89,     19.965,   -39.8463,   -19.9231
"Line.l30", 2, 3,    39.8035,    19.9131, 0.000391141, -0.00622251,    40.0254,    20.0311,   -39.8042,   -19.8974, -0.000253486, 0.00402692,     -40.01,   -20.0202
"Line.l31", 2, 3, 0.000313346, -0.00449165, 0.000253486, -0.00402692,      40.01,    20.0202, -0.000113874, 0.00163378, -9.24368E-005, 0.00146425,        -40,   -19.9986
"Line.l32", 2, 3, 0.000113874, -0.00163378, 9.24367E-005, -0.00146425, -0.000206311, -0.00154846, 2.4022E-011, 5.12803E-011, -3.77119E-012, 2.86559E-011, -1.39088E-011, -4.78392E-011
"Line.l33", 2, 1,    20.0066,    10.0052,   -20.0001,   -10.0001
"Line.l34", 2, 1,    60.0582,    30.0547,   -60.0393,    -30.036
"Line.l35", 2, 2,    39.6741,    19.8623,    40.6123,     20.354,   -39.6444,   -19.8341,   -40.6097,   -20.3162
"Line.l36", 2, 3,     219.07,    139.951,    222.104,    150.455,    201.689,    126.958,   -218.824,   -139.603,   -221.978,    -150.11,   -201.579,   -126.672
"Line.l37", 2, 1,    39.6444,    19.8341,   -39.6184,   -19.8092
"Line.l38", 2, 1,    40.6097,    20.3162,   -40.5885,    -20.296
"Line.l39", 2, 1,    20.0068,    10.0051,        -20,        -10
"Line.l40", 2, 1,    20.0071,    10.0055,   -20.0001,   -10.0001
"Line.l41", 2, 3,    218.824,    139.603,    221.978,     150.11,    181.572,    116.667,   -218.558,   -139.249,   -221.868,   -149.751,   -181.489,    -116.45
"Line.l42", 2, 1,    42.2004,    21.1212,   -42.1543,   -21.0771
"Line.l43", 2, 3,    198.558,    129.249,    179.667,     128.63,    181.489,     116.45,   -198.407,   -129.005,   -179.605,   -128.457,   -181.403,   -116.258
"Line.l44", 2, 1,     39.869,    19.9446,   -39.8514,   -19.9277
"Line.l45", 2, 3,    158.538,     109.06,    179.605,    128.457,    181.403,    116.258,   -158.413,   -108.889,   -179.488,   -128.226,   -181.318,   -115.996
"Line.l46", 2, 1,    20.0071,    10.0055,   -20.0004,   -10.0002
"Line.l47", 2, 3,    68.7148,     49.095,    73.5722,    52.5634,    71.0359,    50.7573,   -68.7021,   -49.0729,   -73.5579,   -52.5413,   -71.0289,    -50.735
"Line.l48", 2, 3,    55.0144,    35.0193,    70.0269,     50.028,    75.0179,    40.0497,   -55.0035,   -35.0036,   -69.9972,   -49.9928,    -75.011,   -40.0072
"Line.l49", 2, 3,    20.0027,     10.003, -0.00292039, -0.00726885,    40.0108,    20.0071,   -20.0037,   -10.0005, 0.00218952, 0.00545225,   -40.0011,   -19.9943
"Line.l50", 2, 3,    20.0037,    10.0005, -0.00218952, -0.00545225, 0.000853116, -0.00578363,   -20.0013,   -9.99744, 0.00145988, 0.00363513, -0.000568999, 0.00385565
"Line.l51", 2, 3, 0.000890622, -0.00277632, -0.00145988, -0.00363513, 0.000568999, -0.00385565, 1.77386E-007, -4.19E-011, 3.64798E-008, 1.78587E-011, 4.2743E-008, 4.17513E-012
"Line.l52", 2, 3,    741.398,    147.091,    601.298,    85.6541,    642.764,    74.0796,   -739.842,   -144.421,   -601.026,   -84.3507,   -641.928,   -72.5038
"Line.l53", 2, 3,    699.841,     124.42,    601.026,    84.3507,    641.928,    72.5038,   -698.996,    -122.98,   -600.799,    -83.543,   -641.419,   -71.4726
"Line.l54", 2, 3,    19.9364,    9.96572,    20.0021,    10.0037, 0.000269964, -0.00392095,    -19.933,    -9.9646,   -20.0022,   -10.0021, -0.000135093, 0.00196062
"Line.l55", 2, 3,    679.059,    113.014,    580.797,    73.5393,    641.419,    71.4766,   -677.517,   -109.119,   -579.468,   -71.3077,   -640.051,   -68.9105
"Line.l56", 2, 3, -0.000314823, -0.00208057,    20.0022,    10.0021, 0.000135093, -0.00196062, -1.40115E-011, -2.12005E-011,        -20,        -10, -7.13679E-012, -2.4025E-011
"Line.l57", 2, 1,    40.6429,    20.3323,   -40.6217,   -20.3122
"Line.l58", 2, 3,    677.517,    109.119,    538.825,    50.9754,    640.051,    68.9105,   -674.328,   -100.483,   -536.527,   -47.0976,   -636.759,   -63.4593
"Line.l59", 2, 1,    20.0052,    10.0039,   -20.0001,        -10
"Line.l60", 2, 3, -0.000385196, -0.00436994, 0.000607865, -0.00430375, -0.000219619, -0.00382259, -9.98325E-007, -3.26774E-005, -1.18117E-006, -3.47945E-005, -8.70982E-007, -3.38252E-005
"Line.l61", 2, 3,    85.0329,    66.0609,    113.115,    61.5147,    175.941,    84.0761,   -84.9604,   -66.0347,   -112.963,   -61.5142,     -175.6,   -83.8831
"Line.l62", 2, 3,    84.9604,    66.0347,    112.963,    61.5142,    135.276,    63.7209,   -84.8958,   -66.0225,   -112.857,   -61.4948,   -135.151,   -63.6486
"Line.l63", 2, 3,    44.8942,    46.0217,    112.857,    61.4948,    135.151,    63.6486,   -44.8621,   -46.0479,   -112.612,   -61.4758,   -134.895,   -63.4627
"Line.l64", 2, 3,    44.8621,    46.0479,    35.9216,    25.6868,    134.895,    63.4627,   -44.8385,   -46.0381,   -35.8909,   -25.7372,   -134.497,   -63.2895
"Line.l65", 2, 3, 4.86917E-006, -0.0231983, -5.65864E-006, -0.0249065,    75.1129,    35.0321, 1.33576E-012, 4.23469E-012, 1.24927E-011, 1.58858E-011,   -75.0008,   -35.0004
"Line.l66", 2, 1,    120.377,    60.3735,    -120.23,    -60.225
"Line.l67", 2, 3,    264.391,   -131.306,    302.801,   -76.0057,    316.654,   -93.4917,   -264.274,    131.792,   -302.404,    76.4658,   -316.399,    94.1213
"Line.l68", 2, 3,    183.588,    92.8588,     120.18,    60.2964,    143.163,    71.8247,   -183.494,   -92.6052,   -120.145,   -60.2221,   -143.086,   -71.7301
"Line.l69", 2, 1,    100.229,    50.2245,   -100.088,    -50.083
"Line.l70", 2, 1,    60.0856,    30.0821,   -60.0256,   -30.0229
"Line.l71", 2, 1,    40.0246,    20.0224,    -40.002,   -20.0009
"Line.l72", 2, 1,    122.904,    61.6352,   -122.692,   -61.4218
"Line.l73", 2, 3,    264.274,   -131.792,    302.404,   -76.4658,    193.495,   -155.757,   -264.106,    132.071,    -302.12,    76.9392,   -193.475,     156.02
"Line.l74", 2, 1,    82.6911,    41.4215,   -82.5685,   -41.2991
"Line.l75", 2, 1,    40.0334,    20.0315,   -40.0004,   -20.0002
"Line.l76", 2, 3,    83.5985,   -174.368,    80.5793,   -173.327,    80.9647,   -174.637,   -83.4979,    174.653,    -80.428,    173.628,   -80.7992,    174.894
"Line.l77", 2, 3,    80.2047,   -13.4135,    141.455,    18.6025,    39.9792,   -33.6669,   -80.1298,    13.4363,   -141.264,    -18.174,   -40.0154,    33.7294
"Line.l78", 2, 3,    83.4979,   -174.653,    40.4277,   -193.628,    80.7992,   -174.894,   -83.4641,    174.732,   -40.3968,    193.715,   -80.7561,    174.946
"Line.l79", 2, 3,    43.1015,    21.5623, -0.000103023, -0.00165229, -0.000148983, -0.00198381,   -43.0939,    -21.547, 3.51715E-013, -1.6243E-011, 3.27367E-011, -2.38197E-011
"Line.l80", 2, 3,    40.3626,   -196.294,    40.3969,   -193.713,    80.7563,   -174.944,   -40.2374,    196.728,   -40.2581,    194.067,   -80.4973,    175.237
"Line.l81", 2, 3,    40.2374,   -196.728,   0.257836,   -214.067,    80.4973,   -175.237,   -40.1732,    196.896,  -0.213564,    214.239,    -80.399,    175.325
"Line.l82", 2, 3,    40.1732,   -196.896,   0.213564,   -214.239,    20.2354,   -205.484,   -40.0825,    197.083,  -0.101649,    214.497,   -20.1351,    205.647
"Line.l83", 2, 1,    60.1636,    30.1594,   -60.0395,   -30.0372
"Line.l84", 2, 3,  0.0805453,   -217.084,   0.101649,   -214.497,    20.1351,   -205.647, 6.77574E-012,    217.327, -2.44472E-012,    214.726,   -20.0002,    205.823
"Line.l85", 2, 1,    40.0393,    20.0371,   -40.0005,   -20.0002
"Line.l86", 2, 3,    80.1298,   -13.4363,    121.264,    8.17391,    40.0154,   -33.7294,   -80.0843,    13.4582,   -121.183,   -7.98138,   -40.0253,    33.7572
"Line.l87", 2, 1,    40.0214,   -33.4893,    -40.002,    33.5081
"Line.l88", 2, 3,    40.0629,    20.0311,    81.1826,   -12.0188,    40.0253,   -33.7572,    -40.044,   -20.0288,   -81.1519,    12.0789,   -40.0344,    33.7758
"Line.l89", 2, 1,    41.1306,   -32.1273,   -41.1024,    32.1546
"Line.l90", 2, 3,     40.044,    20.0288,    40.0213,    20.0483,    40.0344,   -33.7758,   -40.0351,   -20.0285,   -40.0136,   -20.0337,   -40.0334,     33.792
"Line.l91", 2, 1,    40.0338,   -33.7874,   -40.0004,    33.8196
"Line.l92", 2, 3,    40.0351,    20.0285,    40.0136,    20.0337, -0.000346493, -0.00463487,   -40.0249,   -20.0199,    -40.013,   -20.0211, 0.000197714, 0.00264879
"Line.l93", 2, 1,    40.0245,    20.0223,    -40.002,    -20.001
"Line.l94", 2, 3, 0.000337206, -0.00243969,     40.013,    20.0211, -0.000197714, -0.00264879, -1.04289E-011, 4.59786E-011,   -40.0045,   -20.0033, -8.34874E-012, 1.61027E-011
"Line.l95", 2, 1,    20.0043,    10.0032,   -20.0002,   -10.0001
"Line.l96", 2, 3,     40.007,    19.9977,    40.0338,    20.0178,    42.7591,     21.425,   -40.0026,   -19.9887,   -40.0268,   -20.0095,   -42.7541,   -21.4157
"Line.l97", 2, 3, 0.000735149,  -0.012221,    40.0268,    20.0095,    42.7541,    21.4157, -0.000491842, 0.00814971,    -39.999,   -19.9912,   -42.7543,   -21.3843
"Line.l98", 2, 3, 0.000491842, -0.00814971, -0.00123791, -0.00883545,    42.7543,    21.3843, -0.00035746, 0.00592826, 0.000898829, 0.00642555,   -42.7442,   -21.3648
"Line.l99", 2, 3, 0.00035746, -0.00592826, -0.000898829, -0.00642555, 0.000541369, -0.00700136, -4.74682E-012, 1.39078E-011, -1.3389E-011, -1.2831E-011, 1.61782E-011, -1.73677E-012
"Line.l118", 2, 3,    143.487,    72.6075,    80.1115,    40.2043,    100.327,    50.3051,   -143.427,   -72.4455,   -80.1015,   -40.1746,   -100.283,   -50.2644
"Line.l100", 2, 1,    100.282,    50.2784,   -100.166,   -50.1623
"Line.l101", 2, 3,    143.427,    72.4455,    80.1015,    40.1746, 0.00108895, -0.0140125,   -143.294,    -72.254,   -80.1208,   -40.1089, -0.000907592,  0.0116067
"Line.l102", 2, 1,    80.1658,    40.1622,   -80.0587,   -40.0554
"Line.l103", 2, 1,    40.0582,    20.0551,   -40.0005,   -20.0002
"Line.l104", 2, 1,    80.1223,    40.1195,    -80.048,   -40.0454
"Line.l105", 2, 3,    143.294,     72.254, -0.00149632, -0.0106506, 0.000907592, -0.0116067,   -143.175,   -71.9819,  0.0011318, 0.00804308, -0.000690979, 0.00875799
"Line.l106", 2, 1,    40.0478,    20.0453,   -40.0003,   -20.0001
"Line.l107", 2, 1,    143.174,    71.9892,     -142.7,   -71.5107
"Line.l108", 2, 3, 0.00044082, -0.00736405, -0.0011318, -0.00804308, 0.000690979, -0.00875799, 1.43183E-012, 4.41699E-012, 2.40328E-012, 3.80884E-012,          0,          0
"Line.l109", 2, 1,    102.698,    51.5097,   -102.534,   -51.3452
"Line.l110", 2, 1,     20.013,    10.0096,    -20.001,   -10.0005
"Line.l111", 2, 1,    82.5209,    41.3355,   -82.4767,   -41.2913
"Line.l112", 2, 1,    61.9743,    31.0401,   -61.8694,   -30.9365
"Line.l113", 2, 1,    20.0078,    10.0057,    -20.001,   -10.0005
"Line.l114", 2, 3,    284.754,    158.663,    277.659,    193.709,    201.763,    127.306,   -284.198,   -157.801,   -277.263,   -192.821,   -201.689,   -126.958
"Line.l116", 2, 3,    784.936,     173.22,    601.663,     88.282,    644.482,    77.0837,   -781.399,   -167.091,   -601.298,   -85.6541,   -642.764,   -74.0796
"Line.l117", 2, 3,    569.295,    24.4092,    423.411,   -14.4213,    460.818,   -20.6235,   -568.356,   -21.9266,   -422.981,    15.7093,   -459.817,     21.667
"Line.sw1", 2, 3,    1464.42,    581.677,    963.752,    343.689,    1193.41,    398.506,   -1464.42,   -581.677,   -963.752,   -343.689,   -1193.41,   -398.506
"Line.sw2", 2, 3,    784.936,     173.22,    601.663,     88.282,    644.482,    77.0837,   -784.936,    -173.22,   -601.663,    -88.282,   -644.482,   -77.0837
"Line.sw3", 2, 3,    284.754,    158.663,    277.659,    193.709,    201.763,    127.306,   -284.754,   -158.663,   -277.659,   -193.709,   -201.763,   -127.306
"Line.sw4", 2, 3,    569.295,    24.4258,    423.411,   -14.4128,    460.818,    -20.613,   -569.295,   -24.4258,   -423.411,    14.4128,   -460.818,     20.613
"Line.sw5", 2, 3,    143.487,    72.6075,    80.1115,    40.2043,    100.327,    50.3051,   -143.487,   -72.6075,   -80.1115,   -40.2043,   -100.327,   -50.3051
"Line.sw6", 2, 3, -2.79187E-007, 3.27562E-005, 4.19176E-007, 3.50509E-005, 3.05583E-007, 3.39989E-005, 2.79187E-007, -3.27562E-005, -4.19176E-007, -3.50509E-005, -3.05583E-007, -3.39989E-005
"Line.sw7", 2, 3,          0,          0,          0,          0,          0,          0,          0,          0,          0,          0,          0,          0
"Line.sw8", 2, 1,          0,          0,          0,          0
"Transformer.xfm1", 2, 4, 2.30244E-007, 3.26774E-005, 1.01108E-009, 3.47945E-005, -2.31255E-007, 3.38252E-005,          0,          0, -1.34147E-013, -1.8222E-013, -6.86642E-015, 2.29301E-013, -1.15985E-013, 2.2758E-013,          0,          0
"Capacitor.c83", 2, 3, -1.81899E-015,   -217.327,          0,   -214.726, -1.45519E-014,   -215.824,          0,          0,          0,          0,          0,          0
"Capacitor.c88a", 2, 1, -4.54747E-016,    -53.509,          0,          0
"Capacitor.c90b", 2, 1,          0,   -52.7058,          0,          0
"Capacitor.c92c", 2, 1, 3.63798E-015,   -53.8198,          0,          0
"Transformer.reg2a", 2, 2,    60.7765,    30.4414,          0,          0,   -60.7765,   -30.4411,          0,          0
"Transformer.reg3a", 2, 2,       39.9,     20.004,          0,          0,      -39.9,   -20.0039,          0,          0
"Transformer.reg4a", 2, 2,    569.295,    24.4258,          0,          0,   -569.295,   -24.4092,          0,          0
"Transformer.reg3c", 2, 2,     40.042,     20.037,          0,          0,    -40.042,   -20.0369,          0,          0
"Transformer.reg4b", 2, 2,    423.411,   -14.4128,          0,          0,   -423.411,    14.4213,          0,          0
"Transformer.reg4c", 2, 2,    460.818,    -20.613,          0,          0,   -460.818,    20.6235,          0,          0
"Load.s1a", 1, 2,    40.0001,    20.0001,          0,          0
"Load.s2b", 1, 2,         20,         10,          0,          0
"Load.s4c", 1, 2,         40,         20,          0,          0
"Load.s5c", 1, 2,    20.6537,    10.3268,          0,          0
"Load.s6c", 1, 2,    42.6013,    21.3007,          0,          0
"Load.s7a", 1, 2,    20.0001,    10.0001,          0,          0
"Load.s9a", 1, 2,    40.0002,    20.0003,          0,          0
"Load.s10a", 1, 2,    20.1379,     10.069,          0,          0
"Load.s11a", 1, 2,    40.5262,    20.2633,          0,          0
"Load.s12b", 1, 2,         20,    10.0001,          0,          0
"Load.s16c", 1, 2,    40.0001,         20,          0,          0
"Load.s17c", 1, 2,         20,         10,          0,          0
"Load.s19a", 1, 2,    40.0003,    20.0004,          0,          0
"Load.s20a", 1, 2,    39.9016,    19.9511,          0,          0
"Load.s22b", 1, 2,    42.5493,    21.2748,          0,          0
"Load.s24c", 1, 2,    40.0001,         20,          0,          0
"Load.s28a", 1, 2,    39.9083,    19.9545,          0,          0
"Load.s29a", 1, 2,    39.8033,     19.902,          0,          0
"Load.s30c", 1, 2,    40.0001,    20.0001,          0,          0
"Load.s31c", 1, 2,    20.0001,         10,          0,          0
"Load.s32c", 1, 2,    20.0001,         10,          0,          0
"Load.s33a", 1, 2,    39.8458,    19.9232,          0,          0
"Load.s34c", 1, 2,    41.5772,    20.7886,          0,          0
"Load.s35a", 1, 2,    25.4534,   -2.01204,    14.5468,    22.0122
"Load.s37a", 1, 2,    39.6179,    19.8092,          0,          0
"Load.s38b", 1, 2,    20.5817,    10.2909,          0,          0
"Load.s39b", 1, 2,         20,    10.0001,          0,          0
"Load.s41c", 1, 2,    20.0001,         10,          0,          0
"Load.s42a", 1, 2,    20.0001,    10.0002,          0,          0
"Load.s43b", 1, 2,    42.1542,    21.0773,          0,          0
"Load.s45a", 1, 2,     19.844,    9.92217,          0,          0
"Load.s46a", 1, 2,    20.0002,    10.0002,          0,          0
"Load.s47", 1, 4,    34.6835,    24.7743,    35.8884,    25.6348,     35.264,    25.1886,          0,          0
"Load.s48", 1, 4,     68.701,    49.0728,    73.5576,    52.5416,    71.0288,    50.7348,          0,          0
"Load.s49a", 1, 2,    35.0002,    25.0005,          0,          0
"Load.s49b", 1, 2,    69.9999,    50.0003,          0,          0
"Load.s49c", 1, 2,    35.0001,         20,          0,          0
"Load.s50c", 1, 2,    40.0001,         20,          0,          0
"Load.s51a", 1, 2,    20.0002,    10.0002,          0,          0
"Load.s52a", 1, 2,    40.0003,    20.0005,          0,          0
"Load.s53a", 1, 2,    40.0004,    20.0006,          0,          0
"Load.s55a", 1, 2,     19.933,     9.9667,          0,          0
"Load.s56b", 1, 2,         20,    10.0001,          0,          0
"Load.s58b", 1, 2,    20.6164,    10.3084,          0,          0
"Load.s59b", 1, 2,         20,    10.0001,          0,          0
"Load.s60a", 1, 2,    20.0003,    10.0004,          0,          0
"Load.s62c", 1, 2,    40.3241,     20.162,          0,          0
"Load.s63a", 1, 2,    40.0006,    20.0009,          0,          0
"Load.s64b", 1, 2,    76.6903,    35.7895,          0,          0
"Load.s65a", 1, 2,    24.3083,    1.76036,    10.3837,    23.0198
"Load.s65b", 1, 2,    25.5068,    2.74214,    10.2938,      22.83
"Load.s65c", 1, 2,    49.0893,    5.42775,    20.5293,    44.3009
"Load.s66c", 1, 2,    75.0004,    35.0001,          0,          0
"Load.s68a", 1, 2,    20.0003,    10.0005,          0,          0
"Load.s69a", 1, 2,    40.0006,     20.001,          0,          0
"Load.s70a", 1, 2,    20.0003,    10.0005,          0,          0
"Load.s71a", 1, 2,    40.0007,     20.001,          0,          0
"Load.s73c", 1, 2,    40.0002,    20.0001,          0,          0
"Load.s74c", 1, 2,    42.5349,    21.2674,          0,          0
"Load.s75c", 1, 2,    40.0002,    20.0001,          0,          0
"Load.s76a", 1, 2,    78.4276,    9.13701,    29.1806,    72.8512
"Load.s76b", 1, 2,    50.9035,    4.93346,    21.4243,    46.7298
"Load.s76c", 1, 2,    51.1059,    5.55507,    21.8733,    46.5742
"Load.s77b", 1, 2,    39.9999,    20.0004,          0,          0
"Load.s79a", 1, 2,    43.0927,    21.5471,          0,          0
"Load.s80b", 1, 2,    39.9999,    20.0005,          0,          0
"Load.s82a", 1, 2,    40.0006,     20.001,          0,          0
"Load.s83c", 1, 2,    20.0001,         10,          0,          0
"Load.s84c", 1, 2,    20.0001,         10,          0,          0
"Load.s85c", 1, 2,    40.0003,    20.0001,          0,          0
"Load.s86b", 1, 2,         20,    10.0002,          0,          0
"Load.s87b", 1, 2,    39.9999,    20.0005,          0,          0
"Load.s88a", 1, 2,    40.0007,    20.0011,          0,          0
"Load.s90b", 1, 2,    41.1021,    20.5516,          0,          0
"Load.s92c", 1, 2,    40.0002,         20,          0,          0
"Load.s94a", 1, 2,    40.0007,    20.0011,          0,          0
"Load.s95b", 1, 2,         20,    10.0003,          0,          0
"Load.s96b", 1, 2,         20,    10.0003,          0,          0
"Load.s98a", 1, 2,    40.0006,     20.001,          0,          0
"Load.s99b", 1, 2,    39.9999,    20.0004,          0,          0
"Load.s100c", 1, 2,    42.7435,    21.3717,          0,          0
"Load.s102c", 1, 2,    20.0001,         10,          0,          0
"Load.s103c", 1, 2,    40.0002,    20.0001,          0,          0
"Load.s104c", 1, 2,    40.0003,    20.0001,          0,          0
"Load.s106b", 1, 2,    39.9999,    20.0004,          0,          0
"Load.s107b", 1, 2,    39.9999,    20.0004,          0,          0
"Load.s109a", 1, 2,    40.0007,    20.0011,          0,          0
"Load.s111a", 1, 2,    20.0003,    10.0006,          0,          0
"Load.s112a", 1, 2,    20.5018,    10.2513,          0,          0
"Load.s113a", 1, 2,    41.8602,    20.9309,          0,          0
"Load.s114a", 1, 2,    20.0004,    10.0006,          0,          0
