distopf/cases/dss/ieee123_dss/ieee123_Power_seq_kVA.txt

SYMMETRICAL COMPONENT POWERS BY CIRCUIT ELEMENT (first 3 phases)                                     Excess Power

Element              Term    P1(kW)   Q1(kvar)       P2         Q2      P0      Q0       P_Norm      Q_Norm     P_Emerg    Q_Emerg

"Vsource.SOURCE"      1    -3608.6    -1325.4        0.0        0.0    -0.0     0.0
"Vsource.SOURCE"      2        0.0        0.0        0.0        0.0     0.0     0.0
"Transformer.REG1A"   1     3608.6     1325.4       -0.0       -0.0     0.0    -0.0        0.0        0.0        0.0        0.0
"Transformer.REG1A"   2    -3608.6    -1325.4        0.0        0.0     0.0     0.0
"Line.L115"           1     3607.8     1324.6       -0.0       -0.0    -0.0    -0.0     1320.1      484.7      176.2       64.7
"Line.L115"           2    -3590.2    -1286.6        0.9        1.0     0.8     1.6
"Line.L1"             1        0.0        0.0        0.0        0.0     0.0     0.0        0.0        0.0        0.0        0.0
"Line.L1"             2        0.0        0.0        0.0        0.0     0.0     0.0
"Line.L2"             1        0.0        0.0        0.0        0.0     0.0     0.0        0.0        0.0        0.0        0.0
"Line.L2"             2        0.0        0.0        0.0        0.0     0.0     0.0
"Line.L3"             1     3427.2     1205.0       -1.1       -0.9    -0.5    -1.7     1189.3      417.5       71.1       25.0
"Line.L3"             2    -3415.3    -1179.2        1.7        1.5     1.0     2.8
"Line.L4"             1        0.0        0.0        0.0        0.0     0.0     0.0        0.0        0.0        0.0        0.0
"Line.L4"             2        0.0        0.0        0.0        0.0     0.0     0.0
"Line.L5"             1        0.0        0.0        0.0        0.0     0.0     0.0        0.0        0.0        0.0        0.0
"Line.L5"             2        0.0        0.0        0.0        0.0     0.0     0.0
"Line.L6"             1        0.0        0.0        0.0        0.0     0.0     0.0        0.0        0.0        0.0        0.0
"Line.L6"             2        0.0        0.0        0.0        0.0     0.0     0.0
"Line.L7"             1     3395.2     1169.0       -1.6       -1.5    -1.0    -2.7     1144.4      392.9       20.3        7.0
"Line.L7"             2    -3387.3    -1152.0        2.1        1.9     1.3     3.4
"Line.L8"             1        0.0        0.0        0.0        0.0     0.0     0.0        0.0        0.0        0.0        0.0
"Line.L8"             2        0.0        0.0        0.0        0.0     0.0     0.0
"Line.L9"             1        0.0        0.0        0.0        0.0     0.0     0.0        0.0        0.0        0.0        0.0
"Line.L9"             2        0.0        0.0        0.0        0.0     0.0     0.0
"Line.L10"            1     3265.9     1090.3       -1.5       -1.7    -1.4    -2.4      921.4      306.7        0.0        0.0
"Line.L10"            2    -3254.9    -1066.7        2.0        2.2     1.7     3.0
"Line.L11"            1        0.0        0.0        0.0        0.0     0.0     0.0        0.0        0.0        0.0        0.0
"Line.L11"            2        0.0        0.0        0.0        0.0     0.0     0.0
"Line.L12"            1        0.0        0.0        0.0        0.0     0.0     0.0        0.0        0.0        0.0        0.0
"Line.L12"            2        0.0        0.0        0.0        0.0     0.0     0.0
"Line.L13"            1     1127.2      670.3       -1.4       -0.6    -0.3    -1.8        0.0        0.0        0.0        0.0
"Line.L13"            2    -1122.4     -660.9        1.4        0.7     0.4     2.3
"Line.L14"            1        0.0        0.0        0.0        0.0     0.0     0.0        0.0        0.0        0.0        0.0
"Line.L14"            2        0.0        0.0        0.0        0.0     0.0     0.0
"Line.L15"            1        0.0        0.0        0.0        0.0     0.0     0.0        0.0        0.0        0.0        0.0
"Line.L15"            2        0.0        0.0        0.0        0.0     0.0     0.0
"Line.L16"            1        0.0        0.0        0.0        0.0     0.0     0.0        0.0        0.0        0.0        0.0
"Line.L16"            2        0.0        0.0        0.0        0.0     0.0     0.0
"Line.L17"            1        0.0        0.0        0.0        0.0     0.0     0.0        0.0        0.0        0.0        0.0
"Line.L17"            2        0.0        0.0        0.0        0.0     0.0     0.0
"Line.L18"            1        0.0        0.0        0.0        0.0     0.0     0.0        0.0        0.0        0.0        0.0
"Line.L18"            2        0.0        0.0        0.0        0.0     0.0     0.0
"Line.L19"            1      282.7      142.7        0.0       -0.7    -1.1    -0.5        0.0        0.0        0.0        0.0
"Line.L19"            2     -282.6     -142.5       -0.0        0.7     1.2     0.6
"Line.L20"            1        0.0        0.0        0.0        0.0     0.0     0.0        0.0        0.0        0.0        0.0
"Line.L20"            2        0.0        0.0        0.0        0.0     0.0     0.0
"Line.L21"            1        0.0        0.0        0.0        0.0     0.0     0.0        0.0        0.0        0.0        0.0
"Line.L21"            2        0.0        0.0        0.0        0.0     0.0     0.0
"Line.L22"            1      241.1      122.0        0.0       -1.1    -1.8    -0.8        0.0        0.0        0.0        0.0
"Line.L22"            2     -241.1     -121.9        0.0        1.1     1.8     0.9
"Line.L23"            1        0.0        0.0        0.0        0.0     0.0     0.0        0.0        0.0        0.0        0.0
"Line.L23"            2        0.0        0.0        0.0        0.0     0.0     0.0
"Line.L24"            1      200.8      102.1       -0.3       -0.9    -1.3    -1.3        0.0        0.0        0.0        0.0
"Line.L24"            2     -200.7     -102.0        0.3        0.9     1.3     1.4
"Line.L25"            1        0.0        0.0        0.0        0.0     0.0     0.0        0.0        0.0        0.0        0.0
"Line.L25"            2        0.0        0.0        0.0        0.0     0.0     0.0
"Line.L26"            1      119.9       61.1       -0.3       -0.5    -0.7    -1.1        0.0        0.0        0.0        0.0
"Line.L26"            2     -119.9      -61.1        0.3        0.6     0.7     1.1
"Line.L27"            1        0.0        0.0        0.0        0.0     0.0     0.0        0.0        0.0        0.0        0.0
"Line.L27"            2        0.0        0.0        0.0        0.0     0.0     0.0
"Line.L28"            1        0.0        0.0        0.0        0.0     0.0     0.0        0.0        0.0        0.0        0.0
"Line.L28"            2        0.0        0.0        0.0        0.0     0.0     0.0
"Line.L29"            1        0.0        0.0        0.0        0.0     0.0     0.0        0.0        0.0        0.0        0.0
"Line.L29"            2        0.0        0.0        0.0        0.0     0.0     0.0
"Line.L30"            1       79.9       40.4        0.0       -0.4    -0.6    -0.3        0.0        0.0        0.0        0.0
"Line.L30"            2      -79.9      -40.4        0.0        0.4     0.6     0.3
"Line.L31"            1       40.3       19.8        0.3       -0.2    -0.6     0.4        0.0        0.0        0.0        0.0
"Line.L31"            2      -40.3      -19.8       -0.3        0.2     0.6    -0.4
"Line.L32"            1        0.0       -0.0       -0.0        0.0     0.0    -0.0        0.0        0.0        0.0        0.0
"Line.L32"            2       -0.0       -0.0       -0.0       -0.0     0.0     0.0
"Line.L33"            1        0.0        0.0        0.0        0.0     0.0     0.0        0.0        0.0        0.0        0.0
"Line.L33"            2        0.0        0.0        0.0        0.0     0.0     0.0
"Line.L34"            1        0.0        0.0        0.0        0.0     0.0     0.0        0.0        0.0        0.0        0.0
"Line.L34"            2        0.0        0.0        0.0        0.0     0.0     0.0
"Line.L35"            1        0.0        0.0        0.0        0.0     0.0     0.0        0.0        0.0        0.0        0.0
"Line.L35"            2        0.0        0.0        0.0        0.0     0.0     0.0
"Line.L36"            1      638.6      414.6       -0.2        0.0     0.3    -0.1        0.0        0.0        0.0        0.0
"Line.L36"            2     -638.1     -413.6        0.2       -0.0    -0.3     0.1
"Line.L37"            1        0.0        0.0        0.0        0.0     0.0     0.0        0.0        0.0        0.0        0.0
"Line.L37"            2        0.0        0.0        0.0        0.0     0.0     0.0
"Line.L38"            1        0.0        0.0        0.0        0.0     0.0     0.0        0.0        0.0        0.0        0.0
"Line.L38"            2        0.0        0.0        0.0        0.0     0.0     0.0
"Line.L39"            1        0.0        0.0        0.0        0.0     0.0     0.0        0.0        0.0        0.0        0.0
"Line.L39"            2        0.0        0.0        0.0        0.0     0.0     0.0
"Line.L40"            1        0.0        0.0        0.0        0.0     0.0     0.0        0.0        0.0        0.0        0.0
"Line.L40"            2        0.0        0.0        0.0        0.0     0.0     0.0
"Line.L41"            1      618.0      403.8       -0.4        0.1     0.6    -0.3        0.0        0.0        0.0        0.0
"Line.L41"            2     -617.5     -402.8        0.4       -0.1    -0.6     0.3
"Line.L42"            1        0.0        0.0        0.0        0.0     0.0     0.0        0.0        0.0        0.0        0.0
"Line.L42"            2        0.0        0.0        0.0        0.0     0.0     0.0
"Line.L43"            1      556.3      372.1       -0.2       -0.2     0.0    -0.2        0.0        0.0        0.0        0.0
"Line.L43"            2     -556.0     -371.5        0.2        0.2    -0.0     0.2
"Line.L44"            1        0.0        0.0        0.0        0.0     0.0     0.0        0.0        0.0        0.0        0.0
"Line.L44"            2        0.0        0.0        0.0        0.0     0.0     0.0
"Line.L45"            1      515.8      350.8        0.1        0.0     0.1     0.4        0.0        0.0        0.0        0.0
"Line.L45"            2     -515.5     -350.1       -0.1       -0.0    -0.1    -0.4
"Line.L46"            1        0.0        0.0        0.0        0.0     0.0     0.0        0.0        0.0        0.0        0.0
"Line.L46"            2        0.0        0.0        0.0        0.0     0.0     0.0
"Line.L47"            1      210.4      150.4        0.0        0.0     0.0     0.0        0.0        0.0        0.0        0.0
"Line.L47"            2     -210.4     -150.3       -0.0       -0.0    -0.0    -0.0
"Line.L48"            1      199.9      124.7        0.1        0.0     0.1     0.4        0.0        0.0        0.0        0.0
"Line.L48"            2     -199.9     -124.6       -0.1       -0.0    -0.1    -0.4
"Line.L49"            1       60.4       30.2        0.2       -0.3    -0.5     0.1        0.0        0.0        0.0        0.0
"Line.L49"            2      -60.4      -30.2       -0.2        0.3     0.5    -0.1
"Line.L50"            1       20.2       10.4       -0.2       -0.1    -0.1    -0.3        0.0        0.0        0.0        0.0
"Line.L50"            2      -20.2      -10.4        0.2        0.1     0.1     0.3
"Line.L51"            1        0.0       -0.0       -0.0       -0.0    -0.0    -0.0        0.0        0.0        0.0        0.0
"Line.L51"            2       -0.0        0.0       -0.0        0.0    -0.0    -0.0
"Line.L52"            1     1980.2      313.7       -1.2       -1.1    -0.5    -1.7        0.0        0.0        0.0        0.0
"Line.L52"            2    -1977.6     -308.3        1.2        1.2     0.5     1.8
"Line.L53"            1     1937.2      287.4       -0.9       -1.0    -0.5    -1.1        0.0        0.0        0.0        0.0
"Line.L53"            2    -1935.6     -284.2        0.9        1.0     0.5     1.2
"Line.L54"            1       39.6       19.9       -0.2        0.1     0.3    -0.2        0.0        0.0        0.0        0.0
"Line.L54"            2      -39.6      -19.9        0.2       -0.1    -0.2     0.2
"Line.L55"            1     1896.0      264.3       -0.7       -1.1    -0.7    -1.0        0.0        0.0        0.0        0.0
"Line.L55"            2    -1891.7     -255.6        0.7        1.2     0.7     1.0
"Line.L56"            1       19.7        9.7        0.0        0.2     0.3     0.1        0.0        0.0        0.0        0.0
"Line.L56"            2      -19.7       -9.7       -0.0       -0.2    -0.3    -0.1
"Line.L57"            1        0.0        0.0        0.0        0.0     0.0     0.0        0.0        0.0        0.0        0.0
"Line.L57"            2        0.0        0.0        0.0        0.0     0.0     0.0
"Line.L58"            1     1851.8      236.0       -0.7       -1.6    -1.3    -1.3        0.0        0.0        0.0        0.0
"Line.L58"            2    -1842.9     -218.3        0.5        1.8     1.4     1.4
"Line.L59"            1        0.0        0.0        0.0        0.0     0.0     0.0        0.0        0.0        0.0        0.0
"Line.L59"            2        0.0        0.0        0.0        0.0     0.0     0.0
"Line.L60"            1       -0.0       -0.0        0.0        0.0     0.0    -0.0        0.0        0.0        0.0        0.0
"Line.L60"            2       -0.0       -0.0        0.0       -0.0    -0.0    -0.0
"Line.L61"            1      370.7      209.2        0.9       -0.4    -0.5     1.0        0.0        0.0        0.0        0.0
"Line.L61"            2     -370.2     -209.0       -0.9        0.4     0.5    -1.0
"Line.L62"            1      330.2      189.3        0.5       -0.2     0.1     0.6        0.0        0.0        0.0        0.0
"Line.L62"            2     -330.0     -189.2       -0.5        0.2    -0.1    -0.6
"Line.L63"            1      289.6      168.2        0.9        0.1     0.1     1.3        0.0        0.0        0.0        0.0
"Line.L63"            2     -289.1     -168.0       -0.8       -0.0     0.0    -1.3
"Line.L64"            1      214.0      134.0        0.9       -0.8    -1.1     0.7        0.0        0.0        0.0        0.0
"Line.L64"            2     -213.7     -133.9       -0.8        0.8     1.2    -0.6
"Line.L65"            1       75.6       34.8        0.7       -0.4    -1.2     0.6        0.0        0.0        0.0        0.0
"Line.L65"            2      -75.6      -34.8       -0.7        0.4     1.3    -0.6
"Line.L66"            1        0.0        0.0        0.0        0.0     0.0     0.0        0.0        0.0        0.0        0.0
"Line.L66"            2        0.0        0.0        0.0        0.0     0.0     0.0
"Line.L67"            1      882.0     -295.2       -0.2        0.3    -0.5     0.5        0.0        0.0        0.0        0.0
"Line.L67"            2     -881.3      296.7        0.2       -0.3     0.5    -0.5
"Line.L68"            1      445.1      225.2        0.3       -0.4     0.1    -0.6        0.0        0.0        0.0        0.0
"Line.L68"            2     -444.9     -224.8       -0.3        0.4    -0.1     0.6
"Line.L69"            1        0.0        0.0        0.0        0.0     0.0     0.0        0.0        0.0        0.0        0.0
"Line.L69"            2        0.0        0.0        0.0        0.0     0.0     0.0
"Line.L70"            1        0.0        0.0        0.0        0.0     0.0     0.0        0.0        0.0        0.0        0.0
"Line.L70"            2        0.0        0.0        0.0        0.0     0.0     0.0
"Line.L71"            1        0.0        0.0        0.0        0.0     0.0     0.0        0.0        0.0        0.0        0.0
"Line.L71"            2        0.0        0.0        0.0        0.0     0.0     0.0
"Line.L72"            1        0.0        0.0        0.0        0.0     0.0     0.0        0.0        0.0        0.0        0.0
"Line.L72"            2        0.0        0.0        0.0        0.0     0.0     0.0
"Line.L73"            1      758.4     -357.3       -0.9       -0.5     0.8     0.5        0.0        0.0        0.0        0.0
"Line.L73"            2     -758.0      358.2        0.9        0.6    -0.8    -0.5
"Line.L74"            1        0.0        0.0        0.0        0.0     0.0     0.0        0.0        0.0        0.0        0.0
"Line.L74"            2        0.0        0.0        0.0        0.0     0.0     0.0
"Line.L75"            1        0.0        0.0        0.0        0.0     0.0     0.0        0.0        0.0        0.0        0.0
"Line.L75"            2        0.0        0.0        0.0        0.0     0.0     0.0
"Line.L76"            1      244.4     -516.2        0.0       -0.0     0.0    -0.1        0.0        0.0        0.0        0.0
"Line.L76"            2     -244.0      517.1       -0.0        0.0    -0.0     0.1
"Line.L77"            1      261.7      -27.3       -0.8       -0.2     0.7     0.5        0.0        0.0        0.0        0.0
"Line.L77"            2     -261.5       27.6        0.8        0.2    -0.7    -0.4
"Line.L78"            1      203.9     -536.6        0.4       -0.1    -0.2    -0.4        0.0        0.0        0.0        0.0
"Line.L78"            2     -203.8      536.8       -0.4        0.1     0.2     0.4
"Line.L79"            1       42.1       22.0        0.1       -0.4     0.2    -0.4        0.0        0.0        0.0        0.0
"Line.L79"            2      -42.1      -22.0       -0.1        0.4    -0.2     0.4
"Line.L80"            1      161.7     -558.8        0.2        0.2    -0.4    -0.1        0.0        0.0        0.0        0.0
"Line.L80"            2     -161.2      559.8       -0.2       -0.2     0.4     0.1
"Line.L81"            1      121.0     -579.4        0.6        0.2    -0.6    -0.4        0.0        0.0        0.0        0.0
"Line.L81"            2     -120.8      579.8       -0.6       -0.2     0.6     0.5
"Line.L82"            1       60.4     -609.6        0.2       -0.2     0.0    -0.4        0.0        0.0        0.0        0.0
"Line.L82"            2      -60.1      610.2       -0.2        0.2    -0.0     0.4
"Line.L83"            1        0.0        0.0        0.0        0.0     0.0     0.0        0.0        0.0        0.0        0.0
"Line.L83"            2        0.0        0.0        0.0        0.0     0.0     0.0
"Line.L84"            1       20.4     -630.9        0.1        0.1    -0.2    -0.1        0.0        0.0        0.0        0.0
"Line.L84"            2      -20.1      631.5       -0.1       -0.1     0.2     0.1
"Line.L85"            1        0.0        0.0        0.0        0.0     0.0     0.0        0.0        0.0        0.0        0.0
"Line.L85"            2        0.0        0.0        0.0        0.0     0.0     0.0
"Line.L86"            1      241.4      -37.4       -0.6       -0.3     0.6     0.2        0.0        0.0        0.0        0.0
"Line.L86"            2     -241.3       37.6        0.6        0.3    -0.5    -0.2
"Line.L87"            1        0.0        0.0        0.0        0.0     0.0     0.0        0.0        0.0        0.0        0.0
"Line.L87"            2        0.0        0.0        0.0        0.0     0.0     0.0
"Line.L88"            1      160.6      -25.2        0.1        0.0     0.6     0.2        0.0        0.0        0.0        0.0
"Line.L88"            2     -160.6       25.3       -0.1       -0.0    -0.6    -0.2
"Line.L89"            1        0.0        0.0        0.0        0.0     0.0     0.0        0.0        0.0        0.0        0.0
"Line.L89"            2        0.0        0.0        0.0        0.0     0.0     0.0
"Line.L90"            1      119.6        7.2        0.2       -0.4     0.2     0.3        0.0        0.0        0.0        0.0
"Line.L90"            2     -119.6       -7.2       -0.2        0.4    -0.2    -0.3
"Line.L91"            1        0.0        0.0        0.0        0.0     0.0     0.0        0.0        0.0        0.0        0.0
"Line.L91"            2        0.0        0.0        0.0        0.0     0.0     0.0
"Line.L92"            1       80.0       40.4       -0.2       -0.3     0.3    -0.1        0.0        0.0        0.0        0.0
"Line.L92"            2      -80.0      -40.4        0.2        0.3    -0.3     0.1
"Line.L93"            1        0.0        0.0        0.0        0.0     0.0     0.0        0.0        0.0        0.0        0.0
"Line.L93"            2        0.0        0.0        0.0        0.0     0.0     0.0
"Line.L94"            1       40.2       19.8       -0.4        0.0     0.2     0.2        0.0        0.0        0.0        0.0
"Line.L94"            2      -40.2      -19.8        0.4       -0.0    -0.2    -0.2
"Line.L95"            1        0.0        0.0        0.0        0.0     0.0     0.0        0.0        0.0        0.0        0.0
"Line.L95"            2        0.0        0.0        0.0        0.0     0.0     0.0
"Line.L96"            1      122.2       61.1        0.0        0.0    -0.0     0.0        0.0        0.0        0.0        0.0
"Line.L96"            2     -122.2      -61.1       -0.0       -0.0     0.0    -0.0
"Line.L97"            1       82.5       40.4       -0.1        0.4    -0.2     0.4        0.0        0.0        0.0        0.0
"Line.L97"            2      -82.5      -40.4        0.1       -0.4     0.2    -0.4
"Line.L98"            1       42.4       20.8        0.3        0.3    -0.5    -0.0        0.0        0.0        0.0        0.0
"Line.L98"            2      -42.4      -20.8       -0.3       -0.3     0.5     0.0
"Line.L99"            1       -0.0       -0.0        0.0       -0.0    -0.0    -0.0        0.0        0.0        0.0        0.0
"Line.L99"            2        0.0        0.0       -0.0        0.0    -0.0     0.0
...
"Line.SW1"            1     3608.6     1325.4       -0.0       -0.0    -0.0    -0.0     1320.4      485.0      176.3       64.7
"Line.SW1"            2    -3607.8    -1324.6        0.0        0.0     0.0     0.0
"Line.SW2"            1     2026.1      346.1       -1.3       -1.1    -0.4    -2.0        0.0        0.0        0.0        0.0
"Line.SW2"            2    -2025.9     -345.8        1.3        1.1     0.4     2.0
"Line.SW3"            1      759.3      476.7       -0.8        0.3     0.9    -0.5        0.0        0.0        0.0        0.0
"Line.SW3"            2     -759.2     -476.6        0.8       -0.3    -0.9     0.5
"Line.SW4"            1     1452.0       -1.3       -1.3       -1.3    -0.9    -2.1        0.0        0.0        0.0        0.0
"Line.SW4"            2    -1451.9        1.5        1.3        1.3     0.9     2.1
"Line.SW5"            1      322.7      163.7        0.3       -0.4     0.1    -0.6        0.0        0.0        0.0        0.0
"Line.SW5"            2     -322.7     -163.7       -0.3        0.4    -0.1     0.6
"Line.SW6"            1       -0.0        0.0       -0.0        0.0     0.0     0.0        0.0        0.0        0.0        0.0
"Line.SW6"            2        0.0       -0.0        0.0       -0.0    -0.0    -0.0
"Line.SW7"            1        0.0        0.0        0.0       -0.0     0.0     0.0        0.0        0.0        0.0        0.0
"Line.SW7"            2        0.0        0.0        0.0        0.0     0.0    -0.0
"Line.SW8"            1        0.0        0.0        0.0        0.0     0.0     0.0        0.0        0.0        0.0        0.0
"Line.SW8"            2        0.0        0.0        0.0        0.0     0.0     0.0
"Transformer.XFM1"    1        0.0        0.0       -0.0        0.0     0.0     0.0        0.0        0.0        0.0        0.0
"Transformer.XFM1"    2        0.0       -0.0        0.0        0.0     0.0     0.0
"Capacitor.C83"       1        0.0     -641.4       -0.0       -0.0     0.0    -0.1        0.0        0.0        0.0        0.0
"Capacitor.C83"       2        0.0        0.0        0.0        0.0     0.0     0.0
"Capacitor.C88A"      1        0.0        0.0        0.0        0.0     0.0     0.0        0.0        0.0        0.0        0.0
"Capacitor.C88A"      2        0.0        0.0        0.0        0.0     0.0     0.0
"Capacitor.C90B"      1        0.0        0.0        0.0        0.0     0.0     0.0        0.0        0.0        0.0        0.0
"Capacitor.C90B"      2        0.0        0.0        0.0        0.0     0.0     0.0
"Capacitor.C92C"      1        0.0        0.0        0.0        0.0     0.0     0.0        0.0        0.0        0.0        0.0
"Capacitor.C92C"      2        0.0        0.0        0.0        0.0     0.0     0.0
"Transformer.REG2A"   1        0.0        0.0        0.0        0.0     0.0     0.0        0.0        0.0        0.0        0.0
"Transformer.REG2A"   2        0.0        0.0        0.0        0.0     0.0     0.0
"Transformer.REG3A"   1        0.0        0.0        0.0        0.0     0.0     0.0        0.0        0.0        0.0        0.0
"Transformer.REG3A"   2        0.0        0.0        0.0        0.0     0.0     0.0
"Transformer.REG4A"   1        0.0        0.0        0.0        0.0     0.0     0.0        0.0        0.0        0.0        0.0
"Transformer.REG4A"   2        0.0        0.0        0.0        0.0     0.0     0.0
"Transformer.REG3C"   1        0.0        0.0        0.0        0.0     0.0     0.0        0.0        0.0        0.0        0.0
"Transformer.REG3C"   2        0.0        0.0        0.0        0.0     0.0     0.0
"Transformer.REG4B"   1        0.0        0.0        0.0        0.0     0.0     0.0        0.0        0.0        0.0        0.0
"Transformer.REG4B"   2        0.0        0.0        0.0        0.0     0.0     0.0
"Transformer.REG4C"   1        0.0        0.0        0.0        0.0     0.0     0.0        0.0        0.0        0.0        0.0
"Transformer.REG4C"   2        0.0        0.0        0.0        0.0     0.0     0.0
"Load.S1A"            1        0.0        0.0        0.0        0.0     0.0     0.0
"Load.S2B"            1        0.0        0.0        0.0        0.0     0.0     0.0
"Load.S4C"            1        0.0        0.0        0.0        0.0     0.0     0.0
"Load.S5C"            1        0.0        0.0        0.0        0.0     0.0     0.0
"Load.S6C"            1        0.0        0.0        0.0        0.0     0.0     0.0
"Load.S7A"            1        0.0        0.0        0.0        0.0     0.0     0.0
"Load.S9A"            1        0.0        0.0        0.0        0.0     0.0     0.0
"Load.S10A"           1        0.0        0.0        0.0        0.0     0.0     0.0
"Load.S11A"           1        0.0        0.0        0.0        0.0     0.0     0.0
"Load.S12B"           1        0.0        0.0        0.0        0.0     0.0     0.0
"Load.S16C"           1        0.0        0.0        0.0        0.0     0.0     0.0
"Load.S17C"           1        0.0        0.0        0.0        0.0     0.0     0.0
"Load.S19A"           1        0.0        0.0        0.0        0.0     0.0     0.0
"Load.S20A"           1        0.0        0.0        0.0        0.0     0.0     0.0
"Load.S22B"           1        0.0        0.0        0.0        0.0     0.0     0.0
"Load.S24C"           1        0.0        0.0        0.0        0.0     0.0     0.0
"Load.S28A"           1        0.0        0.0        0.0        0.0     0.0     0.0
"Load.S29A"           1        0.0        0.0        0.0        0.0     0.0     0.0
"Load.S30C"           1        0.0        0.0        0.0        0.0     0.0     0.0
"Load.S31C"           1        0.0        0.0        0.0        0.0     0.0     0.0
"Load.S32C"           1        0.0        0.0        0.0        0.0     0.0     0.0
"Load.S33A"           1        0.0        0.0        0.0        0.0     0.0     0.0
"Load.S34C"           1        0.0        0.0        0.0        0.0     0.0     0.0
"Load.S35A"           1        0.0        0.0        0.0        0.0     0.0     0.0
"Load.S37A"           1        0.0        0.0        0.0        0.0     0.0     0.0
"Load.S38B"           1        0.0        0.0        0.0        0.0     0.0     0.0
"Load.S39B"           1        0.0        0.0        0.0        0.0     0.0     0.0
"Load.S41C"           1        0.0        0.0        0.0        0.0     0.0     0.0
"Load.S42A"           1        0.0        0.0        0.0        0.0     0.0     0.0
"Load.S43B"           1        0.0        0.0        0.0        0.0     0.0     0.0
"Load.S45A"           1        0.0        0.0        0.0        0.0     0.0     0.0
"Load.S46A"           1        0.0        0.0        0.0        0.0     0.0     0.0
"Load.S47"            1      105.1       75.1        0.0       -0.0     0.0     0.0
"Load.S48"            1      210.4      150.3        0.0        0.0     0.0     0.0
"Load.S49A"           1        0.0        0.0        0.0        0.0     0.0     0.0
"Load.S49B"           1        0.0        0.0        0.0        0.0     0.0     0.0
"Load.S49C"           1        0.0        0.0        0.0        0.0     0.0     0.0
"Load.S50C"           1        0.0        0.0        0.0        0.0     0.0     0.0
"Load.S51A"           1        0.0        0.0        0.0        0.0     0.0     0.0
"Load.S52A"           1        0.0        0.0        0.0        0.0     0.0     0.0
"Load.S53A"           1        0.0        0.0        0.0        0.0     0.0     0.0
"Load.S55A"           1        0.0        0.0        0.0        0.0     0.0     0.0
"Load.S56B"           1        0.0        0.0        0.0        0.0     0.0     0.0
"Load.S58B"           1        0.0        0.0        0.0        0.0     0.0     0.0
"Load.S59B"           1        0.0        0.0        0.0        0.0     0.0     0.0
"Load.S60A"           1        0.0        0.0        0.0        0.0     0.0     0.0
"Load.S62C"           1        0.0        0.0        0.0        0.0     0.0     0.0
"Load.S63A"           1        0.0        0.0        0.0        0.0     0.0     0.0
"Load.S64B"           1        0.0        0.0        0.0        0.0     0.0     0.0
...